Questionable use of curly braces in ".model sir870adp vdmos(rg=3 vto=2.9 rd=3.2m rs=1.5m rb={m} kp=100 mtriode=1.85 cgdmax=1.4n cgdmin=70p cgs=2.9n cjo=3.6n m=.4 a=.7 vj=.7 lambda=20m is=3p ksubthres=.08 mfg=siliconix vds=100 ron=5.5m qg=53.5n)"
    Error: undefined symbol in: "[m]"
Circuit: * Z:\home\hoogendijkta\Documents\hobby\speeduino\KicadPCB\Peak-And-hold-Driver\LTspice simulations\PWM low-z injector.asc

WARNING: Less than two connections to node PWM.  This node is used by V2.
WARNING: Less than two connections to node TEST_DC.  This node is used by A6.
Instance "m:u4:2": Length shorter than recommended for a level 3 MOSFET.
Instance "m:u3:2": Length shorter than recommended for a level 3 MOSFET.
Direct Newton iteration failed to find .op point.  (Use ".option noopiter" to skip.)
Starting Gmin stepping
Gmin = 10
Gmin = 1.07374
Gmin = 0.115292
Gmin = 0.0123794
Gmin = 0.00132923
Gmin = 0.000142725
vernier = 0.5
vernier = 0.25
vernier = 0.125
Gmin = 7.64184e-005
vernier = 0.0625
vernier = 0.03125
vernier = 0.015625
vernier = 0.0078125
Gmin = 7.56782e-005
vernier = 0.00390625
vernier = 0.00520833
Gmin = 7.50651e-005
vernier = 0.00694444
vernier = 0.00925925
Gmin = 7.3753e-005
vernier = 0.0123457
Gmin = 7.17353e-005
vernier = 0.0164609
vernier = 0.0219478
Gmin = 6.8474e-005
vernier = 0.0292638
vernier = 0.0390184
Gmin = 6.35839e-005
vernier = 0.0520245
Gmin = 5.65993e-005
vernier = 0.0693659
vernier = 0.0924879
Gmin = 4.65909e-005
vernier = 0.123317
vernier = 0.164423
Gmin = 3.42244e-005
vernier = 0.21923
Gmin = 2.11503e-005
vernier = 0.292307
vernier = 0.389743
Gmin = 9.55028e-006
vernier = 0.519657
vernier = 0.692876
Gmin = 2.76839e-006
vernier = 0.923834
Gmin = 4.20001e-007
vernier = 1
Gmin = 4.50973e-008
Gmin = 4.84228e-009
vernier = 0.5
vernier = 0.666667
Gmin = 1.47408e-009
vernier = 0.888888
Gmin = 2.50055e-010
vernier = 1
Gmin = 2.74597e-011
Gmin = 2.94846e-012
Gmin = 3.16589e-013
Gmin = 0
Gmin stepping succeeded in finding the operating point.

Changing Tseed to 4.88281e-009
Changing Tseed to 4.88281e-011
Changing Tseed to 4.88281e-008
Changing Tseed to 4.88281e-012
Changing Tseed to 4.88281e-007
Changing Tseed to 4.88281e-013
Heightened Def Con from 0.00901122 to 0.00901122
Heightened Def Con from 0.0174924 to 0.0174924
Heightened Def Con from 0.0207272 to 0.0207272
Heightened Def Con from 0.0230002 to 0.0230002
Heightened Def Con from 0.0378151 to 0.0378151
Heightened Def Con from 0.0378151 to 0.0378151
Heightened Def Con from 0.0392553 to 0.0392553
Heightened Def Con from 0.0392553 to 0.0392553
Heightened Def Con from 0.0430002 to 0.0430002
Heightened Def Con from 0.0468107 to 0.0468107

Date: Sun Jul 19 12:30:45 2020
Total elapsed time: 23.746 seconds.

tnom = 27
temp = 27
method = modified trap
totiter = 457180
traniter = 455426
tranpoints = 126385
accept = 94421
rejected = 31968
matrix size = 88
fillins = 9
solver = Normal
Thread vector: 46.6/37.4[2] 19.2/15.9[2] 7.6/5.9[2] 0.8/2.6[1]  2592/500
Matrix Compiler1: 4.61 KB object code size  3.2/2.1/[1.1]
Matrix Compiler2: off  [2.4]/3.4/3.7


