Questionable use of curly braces in ".model sir870adp vdmos(rg=3 vto=2.9 rd=3.2m rs=1.5m rb={m} kp=100 mtriode=1.85 cgdmax=1.4n cgdmin=70p cgs=2.9n cjo=3.6n m=.4 a=.7 vj=.7 lambda=20m is=3p ksubthres=.08 mfg=siliconix vds=100 ron=5.5m qg=53.5n)"
    Error: undefined symbol in: "[m]"
Circuit: * Z:\home\hoogendijkta\Documents\hobby\speeduino\KicadPCB\Peak-And-hold-Driver\LTspice simulations\PWM low-z injector.asc

WARNING: Less than two connections to node PWM.  This node is used by V2.
WARNING: Less than two connections to node TEST_DC.  This node is used by A6.
Direct Newton iteration failed to find .op point.  (Use ".option noopiter" to skip.)
Starting Gmin stepping
Gmin = 10
Gmin = 1.07374
vernier = 0.5
vernier = 0.25
vernier = 0.125
vernier = 0.0625
Gmin = 1.04056
vernier = 0.03125
vernier = 0.015625
vernier = 0.0078125
Gmin = 1.02049
vernier = 0.00390625
Gmin = 1.00959
vernier = 0.00520833
vernier = 0.00260417
vernier = 0.00130208
Gmin = 1.00697
vernier = 0.00173611
vernier = 0.000868055
vernier = 0.00115741
Gmin = 1.00496
vernier = 0.000578703
vernier = 0.000771604
vernier = 0.000578703
Gmin = 1.00419
vernier = 0.000434027
Gmin = 1.00321
Gmin = 0
Gmin stepping failed

Starting source stepping with srcstepmethod=0
Source Step = 3.0303%
Source Step = 28.0303%
Source Step = 28.1812%
Source Step = 28.2108%
Source Step = 28.2404%
Source Step = 28.27%
Source Step = 28.2996%
Source Step = 28.3292%
vernier = 0.00146484
Source Step = 28.3721%
Source Step = 28.4165%
Source Step = 28.4609%
Source Step = 28.5053%
Source Step = 28.5497%
vernier = 0.00219727
Source Step = 28.6118%
Source Step = 28.6784%
Source Step = 28.745%
Source Step = 28.8116%
Source Step = 28.8781%
vernier = 0.0032959
Source Step = 28.968%
Source Step = 29.0679%
Source Step = 29.1678%
Source Step = 29.2677%
Source Step = 29.3675%
vernier = 0.00494385
Source Step = 29.4974%
Source Step = 29.6472%
Source Step = 29.797%
Source Step = 29.9468%
Source Step = 30.0966%
vernier = 0.00741577
Source Step = 30.2839%
Source Step = 30.5086%
Source Step = 30.7333%
Source Step = 30.958%
Source Step = 31.1828%
vernier = 0.0111237
Source Step = 31.4524%
Source Step = 31.7895%
Source Step = 32.1266%
Source Step = 32.4637%
Source Step = 32.8008%
vernier = 0.0166855
Source Step = 33.1884%
Source Step = 33.694%
Source Step = 34.1996%
Source Step = 34.7053%
Source Step = 35.2109%
vernier = 0.0250282
Source Step = 35.7671%
Source Step = 36.5255%
Source Step = 37.2839%
Source Step = 38.0424%
Source Step = 38.8008%
vernier = 0.0375423
Source Step = 39.5971%
Source Step = 40.7348%
Source Step = 41.8724%
Source Step = 43.0101%
Source Step = 44.1477%
Source Step = 45.2854%
vernier = 0.0563135
Source Step = 46.9918%
Source Step = 48.6983%
Source Step = 50.4048%
Source Step = 52.1113%
Source Step = 53.8177%
vernier = 0.0844703
Source Step = 56.2921%
Source Step = 58.8518%
Source Step = 61.4115%
Source Step = 63.9712%
Source Step = 66.5309%
vernier = 0.126705
Source Step = 70.1145%
Source Step = 73.9541%
Source Step = 77.7936%
Source Step = 81.6332%
Source Step = 85.4727%
vernier = 0.190058
Source Step = 90.6562%
vernier = 0.0475145
Source Step = 90.1522%
Source Step = 90.2422%
Source Step = 90.3322%
Source Step = 90.4222%
Source Step = 90.5122%
Source Step = 90.6022%
Source Step = 90.6921%
Source Step = 90.7821%
Source Step = 90.8721%
Source Step = 90.9621%
Source Step = 91.0521%
Source Step = 91.1421%
Source Step = 91.2321%
Source Step = 91.3221%
Source Step = 91.4121%
Source Step = 91.5021%
Source Step = 91.592%
Source Step = 91.682%
Source Step = 91.772%
Source Step = 91.862%
Source Step = 91.952%
Source Step = 92.042%
Source Step = 92.132%
Source Step = 92.222%
Source Step = 92.312%
Source Step = 92.4019%
Source Step = 92.4919%
Source Step = 92.5819%
Source Step = 92.6719%
Source Step = 92.7619%
Source Step = 92.8519%
Source Step = 92.9419%
Source Step = 93.0319%
Source Step = 93.1219%
Source Step = 93.2119%
vernier = 0.00445449
Source Step = 93.3333%
Source Step = 93.4683%
Source Step = 93.6033%
Source Step = 93.7383%
Source Step = 93.8733%
vernier = 0.00668173
Source Step = 94.0488%
Source Step = 94.2512%
Source Step = 94.4537%
Source Step = 94.6562%
Source Step = 94.8587%
vernier = 0.0100226
Source Step = 95.1118%
Source Step = 95.4155%
Source Step = 95.7192%
Source Step = 96.0229%
Source Step = 96.3266%
vernier = 0.0150339
Source Step = 96.6911%
Source Step = 97.1467%
Source Step = 97.6022%
Source Step = 98.0578%
Source Step = 98.5134%
vernier = 0.0225508
Source Step = 99.0373%
Source Step = 99.7206%
Source stepping succeeded in finding the operating point.

Changing Tseed to 4.88281e-009
Changing Tseed to 4.88281e-011
Changing Tseed to 4.88281e-008
Changing Tseed to 4.88281e-012
Changing Tseed to 4.88281e-007
Changing Tseed to 4.88281e-013
Heightened Def Con from 0.0130311 to 0.0130311
Heightened Def Con from 0.0130311 to 0.0130311
Heightened Def Con from 0.0130311 +to 0.0130311
Heightened Def Con from 0.0130311 to 0.0130311
Heightened Def Con from 0.0130311 ++to 0.0130311
Heightened Def Con from 0.0130311 to 0.0130311
Heightened Def Con from 0.0130311 to 0.0130311
Heightened Def Con from 0.0130311 to 0.0130311
Heightened Def Con from 0.0130381 to 0.0130381
Heightened Def Con from 0.0130381 to 0.0130381
Heightened Def Con from 0.0130381 +to 0.0130381
Heightened Def Con from 0.0130381 to 0.0130381
Heightened Def Con from 0.0130687 to 0.0130687
Heightened Def Con from 0.0130687 ++to 0.0130687
Heightened Def Con from 0.0130687 +to 0.0130687
Heightened Def Con from 0.0130687 to 0.0130687
Heightened Def Con from 0.0130687 to 0.0130687
Heightened Def Con from 0.0130757 to 0.0130757
Heightened Def Con from 0.0130757 +to 0.0130757
Heightened Def Con from 0.0130757 to 0.0130757
Heightened Def Con from 0.0131063 to 0.0131063
Heightened Def Con from 0.0131063 ++to 0.0131063
Heightened Def Con from 0.0131063 to 0.0131063
Heightened Def Con from 0.0131063 to 0.0131063
Heightened Def Con from 0.0131063 to 0.0131063
Heightened Def Con from 0.0131134 to 0.0131134
Heightened Def Con from 0.0131134 to 0.0131134
Heightened Def Con from 0.0131134 +to 0.0131134
Heightened Def Con from 0.0131134 to 0.0131134
Heightened Def Con from 0.0230147 to 0.0230147

Date: Sat Aug 08 22:51:32 2020
Total elapsed time: 91.499 seconds.

tnom = 27
temp = 27
method = modified trap
totiter = 1435167
traniter = 1406344
tranpoints = 342969
accept = 254657
rejected = 88347
matrix size = 135
fillins = 86
solver = Normal
Thread vector: 47.5/35.2[3] 20.2/13.1[3] 11.2/8.5[3] 0.9/3.1[1]  2592/500
Matrix Compiler1: 10.34 KB object code size  6.4/4.3/[1.6]
Matrix Compiler2: off  [4.0]/5.4/5.9


